<?xml version="1.0" encoding="UTF-8"?>

<!-- generated on 2025-04-10 19:51:39.869202 by randomTrips.py v1_22_0+1410-6cdd9657096
<configuration>
    <net-file value="/home/dts/Desktop/sumo-project/odense.net.xml"/>
    <output-trip-file value="/home/dts/Desktop/sumo-project/odense.trips.xml"/>
    <trip-attributes value="departLane=&quot;best&quot; departSpeed=&quot;max&quot;"/>
    <allow-fringe value="True"/>
    <remove-loops value="True"/>
    <validate value="True"/>
    <end value="1000.0"/>
    <period value="2.0"/>
    <binomial value="100"/>
</configuration>
-->

<routes xmlns:xsi="http://www.w3.org/2001/XMLSchema-instance" xsi:noNamespaceSchemaLocation="http://sumo.dlr.de/xsd/routes_file.xsd">
    <trip id="0" depart="0.00" from="-758344504#8" to="-1154848659#5" departLane="best" departSpeed="max"/>
    <trip id="1" depart="2.00" from="502198380#9" to="380657315#1" departLane="best" departSpeed="max"/>
    <trip id="2" depart="3.00" from="758344504#4" to="29193086#6" departLane="best" departSpeed="max"/>
    <trip id="3" depart="4.00" from="-502422158#1" to="22756092#1" departLane="best" departSpeed="max"/>
    <trip id="4" depart="4.00" from="537256431" to="-25539049#2" departLane="best" departSpeed="max"/>
    <trip id="5" depart="5.00" from="-1154848659#6" to="-757647504" departLane="best" departSpeed="max"/>
    <trip id="6" depart="5.00" from="502198382#1" to="502198374#3" departLane="best" departSpeed="max"/>
    <trip id="7" depart="6.00" from="937358476#0" to="-29193088#1" departLane="best" departSpeed="max"/>
    <trip id="8" depart="7.00" from="24753221#3" to="-24753221#4" departLane="best" departSpeed="max"/>
    <trip id="9" depart="7.00" from="758344504#0" to="-29193088#1" departLane="best" departSpeed="max"/>
    <trip id="10" depart="9.00" from="132796196" to="502198374#3" departLane="best" departSpeed="max"/>
    <trip id="11" depart="10.00" from="-502198380#7" to="502198380#6" departLane="best" departSpeed="max"/>
    <trip id="12" depart="11.00" from="414187433#1" to="742357032" departLane="best" departSpeed="max"/>
    <trip id="13" depart="11.00" from="-25539049#6" to="9790003" departLane="best" departSpeed="max"/>
    <trip id="14" depart="12.00" from="502198392#2" to="537256424" departLane="best" departSpeed="max"/>
    <trip id="15" depart="15.00" from="-1154848659#6" to="330203630#3" departLane="best" departSpeed="max"/>
    <trip id="16" depart="19.00" from="758344504#6" to="414187437#1" departLane="best" departSpeed="max"/>
    <trip id="17" depart="29.00" from="-25539049#3" to="-25539049#4" departLane="best" departSpeed="max"/>
    <trip id="18" depart="30.00" from="8798716" to="502422158#0" departLane="best" departSpeed="max"/>
    <trip id="19" depart="30.00" from="-29193094#1" to="-23649661#3" departLane="best" departSpeed="max"/>
    <trip id="20" depart="30.00" from="502198377#1" to="973122229" departLane="best" departSpeed="max"/>
    <trip id="21" depart="30.00" from="-502198380#3" to="8798717" departLane="best" departSpeed="max"/>
    <trip id="22" depart="30.00" from="23649661#3" to="509049546" departLane="best" departSpeed="max"/>
    <trip id="23" depart="31.00" from="758344504#6" to="24753221#4" departLane="best" departSpeed="max"/>
    <trip id="24" depart="39.00" from="24753221#3" to="742357031#0" departLane="best" departSpeed="max"/>
    <trip id="25" depart="40.00" from="-29193090" to="-29193094#0" departLane="best" departSpeed="max"/>
    <trip id="26" depart="47.00" from="502198380#9" to="502198380#8" departLane="best" departSpeed="max"/>
    <trip id="27" depart="48.00" from="-22756090#3" to="502184468#1" departLane="best" departSpeed="max"/>
    <trip id="28" depart="55.00" from="-22756090#1" to="29193086#5" departLane="best" departSpeed="max"/>
    <trip id="29" depart="59.00" from="-757647504" to="834317116#0" departLane="best" departSpeed="max"/>
    <trip id="30" depart="59.00" from="758344504#6" to="-25539049#3" departLane="best" departSpeed="max"/>
    <trip id="31" depart="62.00" from="973122235" to="-1154848659#4" departLane="best" departSpeed="max"/>
    <trip id="32" depart="69.00" from="-495557846" to="1154848659#1" departLane="best" departSpeed="max"/>
    <trip id="33" depart="71.00" from="330203628#1" to="-24753221#0" departLane="best" departSpeed="max"/>
    <trip id="34" depart="76.00" from="-22756090#2" to="29193088#3" departLane="best" departSpeed="max"/>
    <trip id="35" depart="77.00" from="-502198380#7" to="1154848659#1" departLane="best" departSpeed="max"/>
    <trip id="36" depart="78.00" from="-25539049#3" to="742357028#0" departLane="best" departSpeed="max"/>
    <trip id="37" depart="83.00" from="-495557846" to="29193088#2" departLane="best" departSpeed="max"/>
    <trip id="38" depart="83.00" from="1178550068" to="-1154848659#7" departLane="best" departSpeed="max"/>
    <trip id="39" depart="83.00" from="502198388#0" to="-29193094#1" departLane="best" departSpeed="max"/>
    <trip id="40" depart="85.00" from="-1154848659#8" to="-132796198#0" departLane="best" departSpeed="max"/>
    <trip id="41" depart="89.00" from="502198388#1" to="25539049#6" departLane="best" departSpeed="max"/>
    <trip id="42" depart="100.00" from="-29193086#5" to="758344504#6" departLane="best" departSpeed="max"/>
    <trip id="43" depart="104.00" from="23649661#2" to="502198390#0" departLane="best" departSpeed="max"/>
    <trip id="44" depart="107.00" from="-22756090#2" to="537256431" departLane="best" departSpeed="max"/>
    <trip id="45" depart="107.00" from="-29193086#1" to="-24753221#4" departLane="best" departSpeed="max"/>
    <trip id="46" depart="109.00" from="24753221#5" to="502422158#2" departLane="best" departSpeed="max"/>
    <trip id="47" depart="110.00" from="1154848659#2" to="973122233" departLane="best" departSpeed="max"/>
    <trip id="48" depart="114.00" from="937358476#0" to="-8798716" departLane="best" departSpeed="max"/>
    <trip id="49" depart="115.00" from="-29193086#6" to="-23649661#0" departLane="best" departSpeed="max"/>
    <trip id="50" depart="115.00" from="502184468#1" to="758344504#6" departLane="best" departSpeed="max"/>
    <trip id="51" depart="117.00" from="-502198380#2" to="-380657315#2" departLane="best" departSpeed="max"/>
    <trip id="52" depart="117.00" from="330203630#3" to="-502198380#1" departLane="best" departSpeed="max"/>
    <trip id="53" depart="120.00" from="330203630#1" to="-29193088#5" departLane="best" departSpeed="max"/>
    <trip id="54" depart="122.00" from="1126957838" to="22756090#0" departLane="best" departSpeed="max"/>
    <trip id="55" depart="122.00" from="414187433#0" to="29193084" departLane="best" departSpeed="max"/>
    <trip id="56" depart="124.00" from="29193086#7" to="-22756092#2" departLane="best" departSpeed="max"/>
    <trip id="57" depart="124.00" from="22756090#3" to="24753221#1" departLane="best" departSpeed="max"/>
    <trip id="58" depart="125.00" from="-495557846" to="9790003" departLane="best" departSpeed="max"/>
    <trip id="59" depart="125.00" from="-22756092#1" to="-24753221#4" departLane="best" departSpeed="max"/>
    <trip id="60" depart="125.00" from="1154848659#0" to="758344504#7" departLane="best" departSpeed="max"/>
    <trip id="61" depart="127.00" from="25539049#2" to="1154848659#9" departLane="best" departSpeed="max"/>
    <trip id="62" depart="131.00" from="23622084#2" to="-23622084#0" departLane="best" departSpeed="max"/>
    <trip id="63" depart="132.00" from="1154848659#5" to="24753221#2" departLane="best" departSpeed="max"/>
    <trip id="64" depart="134.00" from="-24753221#5" to="-502198367" departLane="best" departSpeed="max"/>
    <trip id="65" depart="134.00" from="22756090#5" to="29193088#4" departLane="best" departSpeed="max"/>
    <trip id="66" depart="139.00" from="29193086#6" to="-29193086#7" departLane="best" departSpeed="max"/>
    <trip id="67" depart="140.00" from="502198388#1" to="-29193086#1" departLane="best" departSpeed="max"/>
    <trip id="68" depart="140.00" from="-1154848659#0" to="758344504#7" departLane="best" departSpeed="max"/>
    <trip id="69" depart="143.00" from="757647504" to="-66289652" departLane="best" departSpeed="max"/>
    <trip id="70" depart="147.00" from="-29193086#0" to="262037337" departLane="best" departSpeed="max"/>
    <trip id="71" depart="149.00" from="-29193088#3" to="-29193089" departLane="best" departSpeed="max"/>
    <trip id="72" depart="159.00" from="29193085" to="29193090" departLane="best" departSpeed="max"/>
    <trip id="73" depart="159.00" from="414187433#0" to="-29193094#1" departLane="best" departSpeed="max"/>
    <trip id="74" depart="162.00" from="834317116#0" to="25539049#4" departLane="best" departSpeed="max"/>
    <trip id="75" depart="163.00" from="-24753221#5" to="24753221#0" departLane="best" departSpeed="max"/>
    <trip id="76" depart="164.00" from="758344504#4" to="-29193089" departLane="best" departSpeed="max"/>
    <trip id="77" depart="168.00" from="502198380#1" to="973122235" departLane="best" departSpeed="max"/>
    <trip id="78" depart="169.00" from="1122319010" to="25539049#5" departLane="best" departSpeed="max"/>
    <trip id="79" depart="170.00" from="758344504#8" to="502198382#1" departLane="best" departSpeed="max"/>
    <trip id="80" depart="173.00" from="758344504#0" to="-502668521" departLane="best" departSpeed="max"/>
    <trip id="81" depart="176.00" from="-502198380#6" to="22756092#2" departLane="best" departSpeed="max"/>
    <trip id="82" depart="176.00" from="1154848659#0" to="502198377#2" departLane="best" departSpeed="max"/>
    <trip id="83" depart="176.00" from="509049548" to="502198385#2" departLane="best" departSpeed="max"/>
    <trip id="84" depart="177.00" from="29193088#3" to="-132796198#1" departLane="best" departSpeed="max"/>
    <trip id="85" depart="178.00" from="330203630#1" to="758344504#0" departLane="best" departSpeed="max"/>
    <trip id="86" depart="178.00" from="29193086#1" to="502198374#0" departLane="best" departSpeed="max"/>
    <trip id="87" depart="180.00" from="9790003" to="502198377#3" departLane="best" departSpeed="max"/>
    <trip id="88" depart="183.00" from="24753221#0" to="-380657315#1" departLane="best" departSpeed="max"/>
    <trip id="89" depart="187.00" from="606468705#0" to="502422158#1" departLane="best" departSpeed="max"/>
    <trip id="90" depart="187.00" from="-502198380#3" to="29193084" departLane="best" departSpeed="max"/>
    <trip id="91" depart="189.00" from="973122227" to="29193086#0" departLane="best" departSpeed="max"/>
    <trip id="92" depart="190.00" from="-1154848659#8" to="-22756092#0" departLane="best" departSpeed="max"/>
    <trip id="93" depart="192.00" from="-29193090" to="-24753221#1" departLane="best" departSpeed="max"/>
    <trip id="94" depart="192.00" from="414187429#0" to="-29193086#3" departLane="best" departSpeed="max"/>
    <trip id="95" depart="193.00" from="-22756090#2" to="-24753221#5" departLane="best" departSpeed="max"/>
    <trip id="96" depart="195.00" from="-23649661#0" to="-9790003" departLane="best" departSpeed="max"/>
    <trip id="97" depart="199.00" from="502198392#1" to="414187437#1" departLane="best" departSpeed="max"/>
    <trip id="98" depart="199.00" from="758344504#8" to="537256428#0" departLane="best" departSpeed="max"/>
    <trip id="99" depart="199.00" from="1154848659#0" to="502198370#2" departLane="best" departSpeed="max"/>
    <trip id="100" depart="200.00" from="-502668521" to="29193094#1" departLane="best" departSpeed="max"/>
    <trip id="101" depart="200.00" from="29193088#4" to="-1154848659#7" departLane="best" departSpeed="max"/>
    <trip id="102" depart="201.00" from="973122234" to="-1154848659#6" departLane="best" departSpeed="max"/>
    <trip id="103" depart="202.00" from="22756092#0" to="-29193086#1" departLane="best" departSpeed="max"/>
    <trip id="104" depart="202.00" from="502198380#6" to="502198390#0" departLane="best" departSpeed="max"/>
    <trip id="105" depart="202.00" from="-502668521" to="758344504#1" departLane="best" departSpeed="max"/>
    <trip id="106" depart="203.00" from="-29193086#2" to="502184468#3" departLane="best" departSpeed="max"/>
    <trip id="107" depart="204.00" from="-29193086#0" to="22756090#5" departLane="best" departSpeed="max"/>
    <trip id="108" depart="205.00" from="502198374#0" to="25539049#2" departLane="best" departSpeed="max"/>
    <trip id="109" depart="208.00" from="-502198380#6" to="414187429#1" departLane="best" departSpeed="max"/>
    <trip id="110" depart="210.00" from="22756092#3" to="-22756090#4" departLane="best" departSpeed="max"/>
    <trip id="111" depart="210.00" from="-758344504#4" to="-1173022534" departLane="best" departSpeed="max"/>
    <trip id="112" depart="212.00" from="502198377#3" to="502198388#0" departLane="best" departSpeed="max"/>
    <trip id="113" depart="212.00" from="834317115" to="-380657315#3" departLane="best" departSpeed="max"/>
    <trip id="114" depart="212.00" from="-24753221#3" to="-23622084#1" departLane="best" departSpeed="max"/>
    <trip id="115" depart="217.00" from="262037337" to="-29193089" departLane="best" departSpeed="max"/>
    <trip id="116" depart="218.00" from="-502198380#1" to="1154848659#7" departLane="best" departSpeed="max"/>
    <trip id="117" depart="218.00" from="-29193086#7" to="25539049#3" departLane="best" departSpeed="max"/>
    <trip id="118" depart="219.00" from="29193084" to="502198374#0" departLane="best" departSpeed="max"/>
    <trip id="119" depart="219.00" from="414187433#2" to="-132796198#0" departLane="best" departSpeed="max"/>
    <trip id="120" depart="220.00" from="29193086#3" to="1126957838" departLane="best" departSpeed="max"/>
    <trip id="121" depart="221.00" from="-29193086#0" to="-380657315#3" departLane="best" departSpeed="max"/>
    <trip id="122" depart="221.00" from="502198374#1" to="-24753221#0" departLane="best" departSpeed="max"/>
    <trip id="123" depart="229.00" from="29193086#3" to="-29193086#4" departLane="best" departSpeed="max"/>
    <trip id="124" depart="231.00" from="-757647504" to="502198390#1" departLane="best" departSpeed="max"/>
    <trip id="125" depart="233.00" from="502198392#2" to="29193085" departLane="best" departSpeed="max"/>
    <trip id="126" depart="237.00" from="606468705#0" to="-29193084" departLane="best" departSpeed="max"/>
    <trip id="127" depart="237.00" from="937358477" to="1154848659#9" departLane="best" departSpeed="max"/>
    <trip id="128" depart="241.00" from="937358477" to="22756092#0" departLane="best" departSpeed="max"/>
    <trip id="129" depart="241.00" from="-380657315#2" to="23622084#1" departLane="best" departSpeed="max"/>
    <trip id="130" depart="246.00" from="414187433#0" to="-29193094#1" departLane="best" departSpeed="max"/>
    <trip id="131" depart="249.00" from="742357028#1" to="1122319010" departLane="best" departSpeed="max"/>
    <trip id="132" depart="250.00" from="-1178550068" to="973122231" departLane="best" departSpeed="max"/>
    <trip id="133" depart="253.00" from="23649661#2" to="-22756090#5" departLane="best" departSpeed="max"/>
    <trip id="134" depart="253.00" from="502422158#1" to="742357031#0" departLane="best" departSpeed="max"/>
    <trip id="135" depart="254.00" from="537256424" to="502198390#1" departLane="best" departSpeed="max"/>
    <trip id="136" depart="257.00" from="509049549" to="-22756092#1" departLane="best" departSpeed="max"/>
    <trip id="137" depart="257.00" from="24753221#4" to="-1154848659#0" departLane="best" departSpeed="max"/>
    <trip id="138" depart="258.00" from="-22756090#0" to="-25539049#4" departLane="best" departSpeed="max"/>
    <trip id="139" depart="260.00" from="330203628#1" to="758344504#8" departLane="best" departSpeed="max"/>
    <trip id="140" depart="260.00" from="606468707" to="758344504#0" departLane="best" departSpeed="max"/>
    <trip id="141" depart="260.00" from="758344504#4" to="-29193088#1" departLane="best" departSpeed="max"/>
    <trip id="142" depart="261.00" from="-502198380#8" to="-495557846" departLane="best" departSpeed="max"/>
    <trip id="143" depart="265.00" from="973122227" to="380657315#0" departLane="best" departSpeed="max"/>
    <trip id="144" depart="267.00" from="29193088#1" to="-22756092#0" departLane="best" departSpeed="max"/>
    <trip id="145" depart="272.00" from="502184468#3" to="1154848659#1" departLane="best" departSpeed="max"/>
    <trip id="146" depart="272.00" from="132796197" to="-25539049#6" departLane="best" departSpeed="max"/>
    <trip id="147" depart="273.00" from="23649661#3" to="502198392#1" departLane="best" departSpeed="max"/>
    <trip id="148" depart="277.00" from="-502198380#9" to="537256421#1" departLane="best" departSpeed="max"/>
    <trip id="149" depart="278.00" from="537256421#0" to="537256428#1" departLane="best" departSpeed="max"/>
    <trip id="150" depart="280.00" from="-25539049#1" to="742357031#0" departLane="best" departSpeed="max"/>
    <trip id="151" depart="282.00" from="742357030#0" to="1154848659#0" departLane="best" departSpeed="max"/>
    <trip id="152" depart="284.00" from="-758344504#4" to="22756092#0" departLane="best" departSpeed="max"/>
    <trip id="153" depart="284.00" from="-24753221#4" to="132796198#0" departLane="best" departSpeed="max"/>
    <trip id="154" depart="287.00" from="502198377#3" to="-502198380#6" departLane="best" departSpeed="max"/>
    <trip id="155" depart="287.00" from="-29193094#1" to="380657315#1" departLane="best" departSpeed="max"/>
    <trip id="156" depart="288.00" from="-502198380#6" to="495557846" departLane="best" departSpeed="max"/>
    <trip id="157" depart="288.00" from="-502198380#3" to="758344504#8" departLane="best" departSpeed="max"/>
    <trip id="158" depart="292.00" from="742357031#1" to="29193088#2" departLane="best" departSpeed="max"/>
    <trip id="159" depart="293.00" from="24753221#2" to="502198380#2" departLane="best" departSpeed="max"/>
    <trip id="160" depart="294.00" from="742357028#1" to="414187437#1" departLane="best" departSpeed="max"/>
    <trip id="161" depart="296.00" from="502198390#1" to="-502198380#9" departLane="best" departSpeed="max"/>
    <trip id="162" depart="303.00" from="414187437#1" to="-29193094#0" departLane="best" departSpeed="max"/>
    <trip id="163" depart="311.00" from="22756090#1" to="294165100" departLane="best" departSpeed="max"/>
    <trip id="164" depart="311.00" from="495557846" to="509049548" departLane="best" departSpeed="max"/>
    <trip id="165" depart="311.00" from="742357031#1" to="1081936922" departLane="best" departSpeed="max"/>
    <trip id="166" depart="311.00" from="132796197" to="29193086#6" departLane="best" departSpeed="max"/>
    <trip id="167" depart="312.00" from="834317115" to="-132796197" departLane="best" departSpeed="max"/>
    <trip id="168" depart="312.00" from="29193087" to="537256424" departLane="best" departSpeed="max"/>
    <trip id="169" depart="313.00" from="132796198#2" to="-132796198#1" departLane="best" departSpeed="max"/>
    <trip id="170" depart="314.00" from="-24753221#0" to="-24753221#1" departLane="best" departSpeed="max"/>
    <trip id="171" depart="315.00" from="742357031#0" to="742357029" departLane="best" departSpeed="max"/>
    <trip id="172" depart="318.00" from="-22756092#1" to="973122233" departLane="best" departSpeed="max"/>
    <trip id="173" depart="320.00" from="25539049#2" to="29193086#3" departLane="best" departSpeed="max"/>
    <trip id="174" depart="321.00" from="742357029" to="24753221#0" departLane="best" departSpeed="max"/>
    <trip id="175" depart="323.00" from="-24753221#0" to="414187429#1" departLane="best" departSpeed="max"/>
    <trip id="176" depart="331.00" from="1154848659#8" to="1154848659#0" departLane="best" departSpeed="max"/>
    <trip id="177" depart="339.00" from="537256421#1" to="834317116#0" departLane="best" departSpeed="max"/>
    <trip id="178" depart="341.00" from="742357030#2" to="29193086#2" departLane="best" departSpeed="max"/>
    <trip id="179" depart="342.00" from="-66289652" to="-23622085#1" departLane="best" departSpeed="max"/>
    <trip id="180" depart="342.00" from="1154848659#1" to="537256421#1" departLane="best" departSpeed="max"/>
    <trip id="181" depart="349.00" from="-29193094#1" to="502198370#3" departLane="best" departSpeed="max"/>
    <trip id="182" depart="353.00" from="25539049#4" to="502198374#1" departLane="best" departSpeed="max"/>
    <trip id="183" depart="355.00" from="1126674464" to="-22756090#0" departLane="best" departSpeed="max"/>
    <trip id="184" depart="359.00" from="502198370#3" to="1154848659#3" departLane="best" departSpeed="max"/>
    <trip id="185" depart="359.00" from="-22756090#2" to="-132796198#2" departLane="best" departSpeed="max"/>
    <trip id="186" depart="362.00" from="-758344504#5" to="-29193088#5" departLane="best" departSpeed="max"/>
    <trip id="187" depart="363.00" from="-25539049#5" to="8798716" departLane="best" departSpeed="max"/>
    <trip id="188" depart="364.00" from="294165097#1" to="414187433#4" departLane="best" departSpeed="max"/>
    <trip id="189" depart="366.00" from="-29193086#6" to="502198388#1" departLane="best" departSpeed="max"/>
    <trip id="190" depart="370.00" from="-9790003" to="-29193086#7" departLane="best" departSpeed="max"/>
    <trip id="191" depart="371.00" from="1122319010" to="414187430#0" departLane="best" departSpeed="max"/>
    <trip id="192" depart="372.00" from="973122228" to="1126957838" departLane="best" departSpeed="max"/>
    <trip id="193" depart="373.00" from="294165097#2" to="-9790003" departLane="best" departSpeed="max"/>
    <trip id="194" depart="373.00" from="414187429#1" to="937358477" departLane="best" departSpeed="max"/>
    <trip id="195" depart="373.00" from="1154848659#5" to="29193086#4" departLane="best" departSpeed="max"/>
    <trip id="196" depart="374.00" from="330203630#2" to="502198374#3" departLane="best" departSpeed="max"/>
    <trip id="197" depart="378.00" from="414187433#2" to="-1154848659#2" departLane="best" departSpeed="max"/>
    <trip id="198" depart="379.00" from="23649661#3" to="294165100" departLane="best" departSpeed="max"/>
    <trip id="199" depart="380.00" from="-29193086#0" to="502422158#0" departLane="best" departSpeed="max"/>
    <trip id="200" depart="380.00" from="495557846" to="-24753221#4" departLane="best" departSpeed="max"/>
    <trip id="201" depart="382.00" from="502198382#3" to="-29193086#5" departLane="best" departSpeed="max"/>
    <trip id="202" depart="382.00" from="29193094#1" to="-1154848659#9" departLane="best" departSpeed="max"/>
    <trip id="203" depart="384.00" from="29193084" to="502198382#1" departLane="best" departSpeed="max"/>
    <trip id="204" depart="386.00" from="973122227" to="29193085" departLane="best" departSpeed="max"/>
    <trip id="205" depart="386.00" from="-22756090#1" to="502198370#0" departLane="best" departSpeed="max"/>
    <trip id="206" depart="388.00" from="502198374#2" to="-1178550068" departLane="best" departSpeed="max"/>
    <trip id="207" depart="392.00" from="132796198#2" to="502198382#1" departLane="best" departSpeed="max"/>
    <trip id="208" depart="392.00" from="-25539049#5" to="502198377#0" departLane="best" departSpeed="max"/>
    <trip id="209" depart="396.00" from="330203628#2" to="757647504" departLane="best" departSpeed="max"/>
    <trip id="210" depart="397.00" from="132796197" to="-23622085#0" departLane="best" departSpeed="max"/>
    <trip id="211" depart="399.00" from="-1154848659#7" to="502184468#3" departLane="best" departSpeed="max"/>
    <trip id="212" depart="400.00" from="758344504#3" to="973122231" departLane="best" departSpeed="max"/>
    <trip id="213" depart="402.00" from="606468707" to="22756092#0" departLane="best" departSpeed="max"/>
    <trip id="214" depart="405.00" from="509049549" to="23622084#1" departLane="best" departSpeed="max"/>
    <trip id="215" depart="411.00" from="29193088#4" to="-22756092#3" departLane="best" departSpeed="max"/>
    <trip id="216" depart="411.00" from="1126674464" to="29193086#3" departLane="best" departSpeed="max"/>
    <trip id="217" depart="412.00" from="1154848659#0" to="414187433#3" departLane="best" departSpeed="max"/>
    <trip id="218" depart="413.00" from="414187437#1" to="-132796198#2" departLane="best" departSpeed="max"/>
    <trip id="219" depart="413.00" from="-1154848659#4" to="-22756092#3" departLane="best" departSpeed="max"/>
    <trip id="220" depart="415.00" from="537256421#1" to="8798717" departLane="best" departSpeed="max"/>
    <trip id="221" depart="417.00" from="606468705#0" to="973122230" departLane="best" departSpeed="max"/>
    <trip id="222" depart="419.00" from="-29193085" to="23622084#0" departLane="best" departSpeed="max"/>
    <trip id="223" depart="422.00" from="973122227" to="-29193089" departLane="best" departSpeed="max"/>
    <trip id="224" depart="422.00" from="-25539049#2" to="502198377#3" departLane="best" departSpeed="max"/>
    <trip id="225" depart="422.00" from="-502198380#9" to="742357031#1" departLane="best" departSpeed="max"/>
    <trip id="226" depart="423.00" from="973122230" to="-25539049#5" departLane="best" departSpeed="max"/>
    <trip id="227" depart="424.00" from="-1154848659#5" to="-1154848659#1" departLane="best" departSpeed="max"/>
    <trip id="228" depart="425.00" from="132796197" to="-758344504#3" departLane="best" departSpeed="max"/>
    <trip id="229" depart="427.00" from="502198385#2" to="495557846" departLane="best" departSpeed="max"/>
    <trip id="230" depart="429.00" from="-502198380#6" to="758344504#1" departLane="best" departSpeed="max"/>
    <trip id="231" depart="429.00" from="502198370#0" to="-29193089" departLane="best" departSpeed="max"/>
    <trip id="232" depart="431.00" from="509049548" to="23622085#1" departLane="best" departSpeed="max"/>
    <trip id="233" depart="431.00" from="502198374#3" to="330203630#4" departLane="best" departSpeed="max"/>
    <trip id="234" depart="432.00" from="29193086#6" to="-25539049#1" departLane="best" departSpeed="max"/>
    <trip id="235" depart="432.00" from="-9790003" to="502198390#0" departLane="best" departSpeed="max"/>
    <trip id="236" depart="433.00" from="973122231" to="-22756092#3" departLane="best" departSpeed="max"/>
    <trip id="237" depart="434.00" from="25539049#5" to="742357030#2" departLane="best" departSpeed="max"/>
    <trip id="238" depart="435.00" from="502184468#3" to="294165097#2" departLane="best" departSpeed="max"/>
    <trip id="239" depart="439.00" from="414187429#1" to="24753221#2" departLane="best" departSpeed="max"/>
    <trip id="240" depart="442.00" from="23649661#2" to="330203630#4" departLane="best" departSpeed="max"/>
    <trip id="241" depart="443.00" from="29193084" to="606468705#2" departLane="best" departSpeed="max"/>
    <trip id="242" depart="447.00" from="-24753221#1" to="-25539049#1" departLane="best" departSpeed="max"/>
    <trip id="243" depart="448.00" from="834317115" to="29193090" departLane="best" departSpeed="max"/>
    <trip id="244" depart="451.00" from="414187429#1" to="29193088#1" departLane="best" departSpeed="max"/>
    <trip id="245" depart="455.00" from="834317116#1" to="25539049#1" departLane="best" departSpeed="max"/>
    <trip id="246" depart="456.00" from="502198374#0" to="-502198380#6" departLane="best" departSpeed="max"/>
    <trip id="247" depart="458.00" from="-1154848659#5" to="742357030#1" departLane="best" departSpeed="max"/>
    <trip id="248" depart="459.00" from="-502198380#2" to="834317116#1" departLane="best" departSpeed="max"/>
    <trip id="249" depart="461.00" from="758344504#5" to="29193094#0" departLane="best" departSpeed="max"/>
    <trip id="250" depart="463.00" from="502198380#4" to="758344504#1" departLane="best" departSpeed="max"/>
    <trip id="251" depart="465.00" from="973122232" to="380657315#3" departLane="best" departSpeed="max"/>
    <trip id="252" depart="470.00" from="742357030#0" to="29193088#4" departLane="best" departSpeed="max"/>
    <trip id="253" depart="474.00" from="502198380#9" to="23649661#3" departLane="best" departSpeed="max"/>
    <trip id="254" depart="474.00" from="29193086#2" to="834317116#0" departLane="best" departSpeed="max"/>
    <trip id="255" depart="474.00" from="973122230" to="-758344504#1" departLane="best" departSpeed="max"/>
    <trip id="256" depart="476.00" from="758344504#1" to="834317116#0" departLane="best" departSpeed="max"/>
    <trip id="257" depart="477.00" from="1154848659#9" to="502198374#3" departLane="best" departSpeed="max"/>
    <trip id="258" depart="478.00" from="502198377#2" to="380657315#0" departLane="best" departSpeed="max"/>
    <trip id="259" depart="478.00" from="25539049#3" to="-23649661#1" departLane="best" departSpeed="max"/>
    <trip id="260" depart="478.00" from="-502198380#2" to="22756092#2" departLane="best" departSpeed="max"/>
    <trip id="261" depart="478.00" from="-22756092#3" to="294165097#0" departLane="best" departSpeed="max"/>
    <trip id="262" depart="478.00" from="29193086#7" to="-502668521" departLane="best" departSpeed="max"/>
    <trip id="263" depart="479.00" from="22756092#1" to="29193090" departLane="best" departSpeed="max"/>
    <trip id="264" depart="480.00" from="23649661#3" to="606468707" departLane="best" departSpeed="max"/>
    <trip id="265" depart="482.00" from="132796198#1" to="502184468#2" departLane="best" departSpeed="max"/>
    <trip id="266" depart="487.00" from="502184468#0" to="29193086#3" departLane="best" departSpeed="max"/>
    <trip id="267" depart="487.00" from="1126957838" to="22756092#3" departLane="best" departSpeed="max"/>
    <trip id="268" depart="498.00" from="-29193086#6" to="502198388#0" departLane="best" departSpeed="max"/>
    <trip id="269" depart="501.00" from="-24753221#3" to="-132796196" departLane="best" departSpeed="max"/>
    <trip id="270" depart="505.00" from="502198392#1" to="-1178550068" departLane="best" departSpeed="max"/>
    <trip id="271" depart="507.00" from="1154848659#8" to="29193088#4" departLane="best" departSpeed="max"/>