<?xml version="1.0" encoding="UTF-8"?>

<!-- generated on 2025-04-10 20:40:44 by Eclipse SUMO netedit Version v1_22_0+1410-6cdd9657096
<neteditConfiguration xmlns:xsi="http://www.w3.org/2001/XMLSchema-instance" xsi:noNamespaceSchemaLocation="http://sumo.dlr.de/xsd/neteditConfiguration.xsd">

    <input>
        <sumo-net-file value="odense.net.xml"/>
    </input>

    <output>
        <output-file value="odense.net.xml"/>
    </output>

    <processing>
        <geometry.min-radius.fix.railways value="false"/>
        <geometry.max-grade.fix value="false"/>
        <offset.disable-normalization value="true"/>
        <lefthand value="0"/>
    </processing>

    <junctions>
        <no-turnarounds value="true"/>
        <junctions.corner-detail value="5"/>
        <junctions.limit-turn-speed value="5.50"/>
        <rectangular-lane-cut value="0"/>
    </junctions>

    <pedestrian>
        <walkingareas value="0"/>
    </pedestrian>

</neteditConfiguration>
-->

<net version="1.20" junctionCornerDetail="5" limitTurnSpeed="5.50" xmlns:xsi="http://www.w3.org/2001/XMLSchema-instance" xsi:noNamespaceSchemaLocation="http://sumo.dlr.de/xsd/net_file.xsd">

    <location netOffset="-588623.27,-6137680.24" convBoundary="0.00,0.00,1632.88,1068.77" origBoundary="10.398750,55.377229,10.424606,55.386810" projParameter="+proj=utm +zone=32 +ellps=WGS84 +datum=WGS84 +units=m +no_defs"/>

    <type id="highway.residential" priority="3" numLanes="1" speed="13.89" disallow="tram rail_urban rail rail_electric rail_fast ship container cable_car subway aircraft wheelchair scooter drone" oneway="0"/>
    <type id="highway.secondary" priority="11" numLanes="1" speed="27.78" disallow="tram rail_urban rail rail_electric rail_fast ship container cable_car subway aircraft wheelchair scooter drone" oneway="0"/>
    <type id="highway.secondary_link" priority="6" numLanes="1" speed="22.22" disallow="tram rail_urban rail rail_electric rail_fast ship container cable_car subway aircraft wheelchair scooter drone" oneway="0"/>
    <type id="highway.tertiary" priority="10" numLanes="1" speed="22.22" disallow="tram rail_urban rail rail_electric rail_fast ship container cable_car subway aircraft wheelchair scooter drone" oneway="0"/>
    <type id="highway.unclassified" priority="4" numLanes="1" speed="13.89" disallow="tram rail_urban rail rail_electric rail_fast ship container cable_car subway aircraft wheelchair scooter drone" oneway="0"/>

    <edge id=":10050976338_0" function="internal">
        <lane id=":10050976338_0_0" index="0" disallow="tram rail_urban rail rail_electric rail_fast ship container cable_car subway aircraft wheelchair scooter drone" speed="13.89" length="0.10" shape="1280.43,344.14 1280.43,344.14"/>
    </edge>
    <edge id=":10050976338_1" function="internal">
        <lane id=":10050976338_1_0" index="0" disallow="tram rail_urban rail rail_electric rail_fast ship container cable_car subway aircraft wheelchair scooter drone" speed="13.89" length="0.10" shape="1282.07,341.40 1282.07,341.40"/>
    </edge>
    <edge id=":10302315023_0" function="internal">
        <lane id=":10302315023_0_0" index="0" disallow="pedestrian tram rail_urban rail rail_electric rail_fast ship container cable_car subway aircraft wheelchair scooter drone" speed="16.67" length="0.30" shape="587.38,516.21 587.09,516.19"/>
        <lane id=":10302315023_0_1" index="1" disallow="pedestrian tram rail_urban rail rail_electric rail_fast ship container cable_car subway aircraft wheelchair scooter drone" speed="16.67" length="0.30" shape="587.62,513.02 587.31,512.99"/>
    </edge>
    <edge id=":10302315024_0" function="internal">
        <lane id=":10302315024_0_0" index="0" disallow="pedestrian tram rail_urban rail rail_electric rail_fast ship container cable_car subway aircraft wheelchair scooter drone" speed="16.67" length="0.30" shape="584.98,523.02 584.68,523.00"/>
        <lane id=":10302315024_0_1" index="1" disallow="pedestrian tram rail_urban rail rail_electric rail_fast ship container cable_car subway aircraft wheelchair scooter drone" speed="16.67" length="0.30" shape="585.16,519.82 584.86,519.80"/>
    </edge>
    <edge id=":10302450305_0" function="internal">
        <lane id=":10302450305_0_0" index="0" disallow="tram rail_urban rail rail_electric rail_fast ship container cable_car subway aircraft wheelchair scooter drone" speed="13.89" length="0.10" shape="1262.25,675.69 1262.25,675.69"/>
    </edge>
    <edge id=":10302450306_0" function="internal">
        <lane id=":10302450306_0_0" index="0" disallow="tram rail_urban rail rail_electric rail_fast ship container cable_car subway aircraft wheelchair scooter drone" speed="16.67" length="0.30" shape="1219.49,679.23 1219.74,679.39"/>
        <lane id=":10302450306_0_1" index="1" disallow="tram rail_urban rail rail_electric rail_fast ship container cable_car subway aircraft wheelchair scooter drone" speed="16.67" length="0.30" shape="1217.74,681.91 1218.00,682.07"/>
        <lane id=":10302450306_0_2" index="2" disallow="tram rail_urban rail rail_electric rail_fast ship container cable_car subway aircraft wheelchair scooter drone" speed="16.67" length="0.30" shape="1216.00,684.59 1216.25,684.76"/>
    </edge>
    <edge id=":10821352728_0" function="internal">
        <lane id=":10821352728_0_0" index="0" disallow="tram rail_urban rail rail_electric rail_fast ship container cable_car subway aircraft wheelchair scooter drone" speed="16.67" length="0.30" shape="630.01,525.59 629.70,525.57"/>
        <lane id=":10821352728_0_1" index="1" disallow="tram rail_urban rail rail_electric rail_fast ship container cable_car subway aircraft wheelchair scooter drone" speed="16.67" length="0.30" shape="630.17,522.39 629.88,522.37"/>
    </edge>
    <edge id=":10823626482_0" function="internal">
        <lane id=":10823626482_0_0" index="0" disallow="tram rail_urban rail rail_electric rail_fast ship container cable_car subway aircraft wheelchair scooter drone" speed="16.67" length="0.10" shape="567.28,486.90 567.27,486.97"/>
        <lane id=":10823626482_0_1" index="1" disallow="tram rail_urban rail rail_electric rail_fast ship container cable_car subway aircraft wheelchair scooter drone" speed="16.67" length="0.10" shape="570.43,487.47 570.41,487.55"/>
    </edge>
    <edge id=":11752422812_0" function="internal">
        <lane id=":11752422812_0_0" index="0" disallow="tram rail_urban rail rail_electric rail_fast ship container cable_car subway aircraft wheelchair scooter drone" speed="13.89" length="0.30" shape="1329.31,573.54 1329.16,573.80"/>
    </edge>
    <edge id=":11752422812_1" function="internal">
        <lane id=":11752422812_1_0" index="0" disallow="tram rail_urban rail rail_electric rail_fast ship container cable_car subway aircraft wheelchair scooter drone" speed="13.89" length="0.30" shape="1326.39,572.20 1326.54,571.94"/>
    </edge>
    <edge id=":11752422814_0" function="internal">
        <lane id=":11752422814_0_0" index="0" disallow="tram rail_urban rail rail_electric rail_fast ship container cable_car subway aircraft wheelchair scooter drone" speed="13.89" length="0.10" shape="1341.57,552.16 1341.57,552.16"/>
    </edge>
    <edge id=":11752422814_1" function="internal">
        <lane id=":11752422814_1_0" index="0" disallow="tram rail_urban rail rail_electric rail_fast ship container cable_car subway aircraft wheelchair scooter drone" speed="13.89" length="0.10" shape="1338.79,550.56 1338.79,550.56"/>
    </edge>
    <edge id=":1555791493_0" function="internal">
        <lane id=":1555791493_0_0" index="0" disallow="tram rail_urban rail rail_electric rail_fast ship container cable_car subway aircraft wheelchair scooter drone" speed="13.89" length="0.28" width="3.50" shape="1169.21,544.83 1168.96,544.70"/>
    </edge>
    <edge id=":1555791493_1" function="internal">
        <lane id=":1555791493_1_0" index="0" disallow="tram rail_urban rail rail_electric rail_fast ship container cable_car subway aircraft wheelchair scooter drone" speed="13.89" length="0.31" width="3.50" shape="1170.52,541.57 1170.80,541.71"/>
    </edge>
    <edge id=":1555791507_0" function="internal">
        <lane id=":1555791507_0_0" index="0" disallow="tram rail_urban rail rail_electric rail_fast ship container cable_car subway aircraft wheelchair scooter drone" speed="13.89" length="0.31" width="3.50" shape="1277.39,606.36 1277.12,606.21"/>
    </edge>
    <edge id=":1555791507_1" function="internal">
        <lane id=":1555791507_1_0" index="0" disallow="tram rail_urban rail rail_electric rail_fast ship container cable_car subway aircraft wheelchair scooter drone" speed="13.89" length="0.22" width="3.50" shape="1278.91,603.20 1279.10,603.31"/>
    </edge>
    <edge id=":1555791522_0" function="internal">
        <lane id=":1555791522_0_0" index="0" disallow="tram rail_urban rail rail_electric rail_fast ship container cable_car subway aircraft wheelchair scooter drone" speed="13.89" length="0.10" width="3.50" shape="1129.83,525.26 1129.90,525.29"/>
    </edge>
    <edge id=":1555791522_1" function="internal">
        <lane id=":1555791522_1_0" index="0" disallow="tram rail_urban rail rail_electric rail_fast ship container cable_car subway aircraft wheelchair scooter drone" speed="13.89" length="0.10" width="3.50" shape="1131.32,522.09 1131.39,522.12"/>
    </edge>
    <edge id=":1573453506_0" function="internal">
        <lane id=":1573453506_0_0" index="0" disallow="pedestrian tram rail_urban rail rail_electric rail_fast ship container cable_car subway aircraft wheelchair scooter drone" speed="19.45" length="25.55" shape="590.56,410.28 590.56,417.01 591.75,422.90 593.05,428.80 593.38,435.57"/>
        <lane id=":1573453506_0_1" index="1" disallow="pedestrian tram rail_urban rail rail_electric rail_fast ship container cable_car subway aircraft wheelchair scooter drone" speed="19.45" length="26.49" shape="590.56,410.28 590.05,417.20 590.11,423.49 590.28,429.80 590.09,436.75"/>
    </edge>
    <edge id=":1573453506_2" function="internal">
        <lane id=":1573453506_2_0" index="0" disallow="pedestrian tram rail_urban rail rail_electric rail_fast ship container cable_car subway aircraft wheelchair scooter drone" speed="15.28" length="27.06" shape="590.56,410.28 586.76,437.10"/>
        <lane id=":1573453506_2_1" index="1" disallow="pedestrian tram rail_urban rail rail_electric rail_fast ship container cable_car subway aircraft wheelchair scooter drone" speed="15.28" length="27.06" shape="587.38,409.88 583.59,436.65"/>
    </edge>
    <edge id=":1573453540_0" function="internal">
        <lane id=":1573453540_0_0" index="0" disallow="tram rail_urban rail rail_electric rail_fast ship container cable_car subway aircraft wheelchair scooter drone" speed="22.22" length="0.30" shape="591.40,463.39 591.37,463.69"/>
        <lane id=":1573453540_0_1" index="1" disallow="tram rail_urban rail rail_electric rail_fast ship container cable_car subway aircraft wheelchair scooter drone" speed="22.22" length="0.30" shape="588.21,463.14 588.18,463.42"/>
    </edge>
    <edge id=":1896452383_0" function="internal">
        <lane id=":1896452383_0_0" index="0" disallow="tram rail_urban rail rail_electric rail_fast ship container cable_car subway aircraft wheelchair scooter drone" speed="3.65" length="4.67" shape="558.76,423.48 559.91,424.35 560.27,425.17 559.82,425.94 558.58,426.68"/>
    </edge>
    <edge id=":2041092705_0" function="internal">
        <lane id=":2041092705_0_0" index="0" disallow="tram rail_urban rail rail_electric rail_fast ship container cable_car subway aircraft wheelchair scooter drone" speed="13.89" length="0.31" shape="985.80,380.00 985.79,379.69"/>
    </edge>
    <edge id=":2041092705_1" function="internal">
        <lane id=":2041092705_1_0" index="0" disallow="tram rail_urban rail rail_electric rail_fast ship container cable_car subway aircraft wheelchair scooter drone" speed="13.89" length="0.28" shape="988.98,379.56 989.00,379.83"/>
    </edge>
    <edge id=":2041094813_0" function="internal">
        <lane id=":2041094813_0_0" index="0" disallow="tram rail_urban rail rail_electric rail_fast ship container cable_car subway aircraft wheelchair scooter drone" speed="13.89" length="0.31" width="3.50" shape="1050.19,490.15 1049.90,490.02"/>
    </edge>
    <edge id=":2041094813_1" function="internal">
        <lane id=":2041094813_1_0" index="0" disallow="tram rail_urban rail rail_electric rail_fast ship container cable_car subway aircraft wheelchair scooter drone" speed="13.89" length="0.22" width="3.50" shape="1051.40,486.85 1051.60,486.94"/>
    </edge>
    <edge id=":244208924_0" function="internal">
        <lane id=":244208924_0_0" index="0" disallow="tram rail_urban rail rail_electric rail_fast ship container cable_car subway aircraft wheelchair scooter drone" speed="13.89" length="14.37" shape="1422.18,418.11 1414.76,430.42"/>
    </edge>
    <edge id=":244208924_1" function="internal">
        <lane id=":244208924_1_0" index="0" disallow="tram rail_urban rail rail_electric rail_fast ship container cable_car subway aircraft wheelchair scooter drone" speed="8.07" length="4.01" shape="1422.18,418.11 1419.72,421.08 1419.59,421.16"/>
    </edge>
    <edge id=":244208924_2" function="internal">
        <lane id=":244208924_2_0" index="0" disallow="tram rail_urban rail rail_electric rail_fast ship container cable_car subway aircraft wheelchair scooter drone" speed="3.65" length="1.44" shape="1422.18,418.11 1420.87,418.72"/>
    </edge>
    <edge id=":244208924_9" function="internal">
        <lane id=":244208924_9_0" index="0" disallow="tram rail_urban rail rail_electric rail_fast ship container cable_car subway aircraft wheelchair scooter drone" speed="8.07" length="10.20" shape="1419.59,421.16 1416.88,422.58 1413.65,422.60 1410.03,421.13"/>
    </edge>
    <edge id=":244208924_10" function="internal">
        <lane id=":244208924_10_0" index="0" disallow="tram rail_urban rail rail_electric rail_fast ship container cable_car subway aircraft wheelchair scooter drone" speed="3.65" length="3.23" shape="1420.87,418.72 1419.98,418.64 1419.50,417.89 1419.44,416.45"/>
    </edge>
    <edge id=":244208924_3" function="internal">
        <lane id=":244208924_3_0" index="0" disallow="tram rail_urban rail rail_electric rail_fast ship container cable_car subway aircraft wheelchair scooter drone" speed="6.59" length="9.13" shape="1411.62,418.36 1413.96,419.31 1416.04,419.30 1417.87,418.35 1419.44,416.45"/>
    </edge>
    <edge id=":244208924_4" function="internal">
        <lane id=":244208924_4_0" index="0" disallow="tram rail_urban rail rail_electric rail_fast ship container cable_car subway aircraft wheelchair scooter drone" speed="7.97" length="14.26" shape="1411.62,418.36 1414.70,420.78 1416.25,423.59 1416.27,426.81 1414.76,430.42"/>
    </edge>
    <edge id=":244208924_5" function="internal">
        <lane id=":244208924_5_0" index="0" disallow="tram rail_urban rail rail_electric rail_fast ship container cable_car subway aircraft wheelchair scooter drone" speed="3.65" length="4.67" shape="1411.62,418.36 1412.26,419.65 1412.21,420.55 1411.47,421.04 1410.03,421.13"/>
    </edge>
    <edge id=":244208924_6" function="internal">
        <lane id=":244208924_6_0" index="0" disallow="tram rail_urban rail rail_electric rail_fast ship container cable_car subway aircraft wheelchair scooter drone" speed="6.47" length="9.03" shape="1412.01,428.77 1412.97,426.49 1412.96,424.45 1411.98,422.67 1410.03,421.13"/>
    </edge>
    <edge id=":244208924_7" function="internal">
        <lane id=":244208924_7_0" index="0" disallow="tram rail_urban rail rail_electric rail_fast ship container cable_car subway aircraft wheelchair scooter drone" speed="13.89" length="14.39" shape="1412.01,428.77 1419.44,416.45"/>
    </edge>
    <edge id=":244208924_8" function="internal">
        <lane id=":244208924_8_0" index="0" disallow="tram rail_urban rail rail_electric rail_fast ship container cable_car subway aircraft wheelchair scooter drone" speed="3.65" length="1.44" shape="1412.01,428.77 1413.31,428.15"/>
    </edge>
    <edge id=":244208924_11" function="internal">
        <lane id=":244208924_11_0" index="0" disallow="tram rail_urban rail rail_electric rail_fast ship container cable_car subway aircraft wheelchair scooter drone" speed="3.65" length="3.23" shape="1413.31,428.15 1414.21,428.22 1414.69,428.98 1414.76,430.42"/>
    </edge>
    <edge id=":244208928_0" function="internal">
        <lane id=":244208928_0_0" index="0" disallow="tram rail_urban rail rail_electric rail_fast ship container cable_car subway aircraft wheelchair scooter drone" speed="7.32" length="10.15" shape="979.92,240.89 979.47,237.93 978.38,235.72 976.68,234.25 974.34,233.52"/>
    </edge>
    <edge id=":244208928_1" function="internal">
        <lane id=":244208928_1_0" index="0" disallow="tram rail_urban rail rail_electric rail_fast ship container cable_car subway aircraft wheelchair scooter drone" speed="7.66" length="15.12" shape="979.92,240.89 980.35,236.62 982.06,233.84 985.06,232.52 989.35,232.69"/>
    </edge>
    <edge id=":244208928_2" function="internal">
        <lane id=":244208928_2_0" index="0" disallow="tram rail_urban rail rail_electric rail_fast ship container cable_car subway aircraft wheelchair scooter drone" speed="3.65" length="4.67" shape="979.92,240.89 980.67,239.66 981.45,239.22 982.27,239.59 983.12,240.75"/>
    </edge>
    <edge id=":244208928_3" function="internal">
        <lane id=":244208928_3_0" index="0" disallow="tram rail_urban rail rail_electric rail_fast ship container cable_car subway aircraft wheelchair scooter drone" speed="6.08" length="9.07" shape="988.77,235.84 986.20,235.74 984.40,236.52 983.38,238.20 983.12,240.75"/>
    </edge>
    <edge id=":244208928_4" function="internal">
        <lane id=":244208928_4_0" index="0" disallow="tram rail_urban rail rail_electric rail_fast ship container cable_car subway aircraft wheelchair scooter drone" speed="13.89" length="14.61" shape="988.77,235.84 974.34,233.52"/>
    </edge>
    <edge id=":244208928_5" function="internal">
        <lane id=":244208928_5_0" index="0" disallow="tram rail_urban rail rail_electric rail_fast ship container cable_car subway aircraft wheelchair scooter drone" speed="3.65" length="1.44" shape="988.77,235.84 987.73,234.83"/>
    </edge>
    <edge id=":244208928_9" function="internal">
        <lane id=":244208928_9_0" index="0" disallow="tram rail_urban rail rail_electric rail_fast ship container cable_car subway aircraft wheelchair scooter drone" speed="3.65" length="3.23" shape="987.73,234.83 987.48,233.97 988.02,233.26 989.35,232.69"/>
    </edge>
    <edge id=":244208928_6" function="internal">
        <lane id=":244208928_6_0" index="0" disallow="tram rail_urban rail rail_electric rail_fast ship container cable_car subway aircraft wheelchair scooter drone" speed="13.89" length="14.77" shape="974.77,230.35 989.35,232.69"/>
    </edge>
    <edge id=":244208928_7" function="internal">
        <lane id=":244208928_7_0" index="0" disallow="tram rail_urban rail rail_electric rail_fast ship container cable_car subway aircraft wheelchair scooter drone" speed="8.69" length="3.98" shape="974.77,230.35 978.27,231.40 978.52,231.60"/>
    </edge>
    <edge id=":244208928_8" function="internal">
        <lane id=":244208928_8_0" index="0" disallow="tram rail_urban rail rail_electric rail_fast ship container cable_car subway aircraft wheelchair scooter drone" speed="3.65" length="1.44" shape="974.77,230.35 975.85,231.30"/>
    </edge>
    <edge id=":244208928_10" function="internal">
        <lane id=":244208928_10_0" index="0" disallow="tram rail_urban rail rail_electric rail_fast ship container cable_car subway aircraft wheelchair scooter drone" speed="8.69" length="10.70" shape="978.52,231.60 980.83,233.48 982.45,236.60 983.12,240.75"/>
    </edge>
    <edge id=":244208928_11" function="internal">
        <lane id=":244208928_11_0" index="0" disallow="tram rail_urban rail rail_electric rail_fast ship container cable_car subway aircraft wheelchair scooter drone" speed="3.65" length="3.23" shape="975.85,231.30 976.14,232.15 975.64,232.89 974.34,233.52"/>
    </edge>
    <edge id=":244208929_0" function="internal">
        <lane id=":244208929_0_0" index="0" disallow="tram rail_urban rail rail_electric rail_fast ship container cable_car subway aircraft wheelchair scooter drone" speed="3.65" length="4.67" shape="615.42,184.90 614.37,183.91 614.11,183.05 614.64,182.33 615.96,181.74"/>
    </edge>
    <edge id=":244208932_0" function="internal">
        <lane id=":244208932_0_0" index="0" disallow="tram rail_urban rail rail_electric rail_fast ship container cable_car subway aircraft wheelchair scooter drone" speed="13.89" length="0.12" width="3.50" shape="1203.02,562.04 1202.92,561.99"/>
    </edge>
    <edge id=":244208932_1" function="internal">
        <lane id=":244208932_1_0" index="0" disallow="tram rail_urban rail rail_electric rail_fast ship container cable_car subway aircraft wheelchair scooter drone" speed="13.89" length="0.35" width="3.50" shape="1204.51,558.87 1204.82,559.04"/>
    </edge>
    <edge id=":255883450_0" function="internal">
        <lane id=":255883450_0_0" index="0" disallow="tram rail_urban rail rail_electric rail_fast ship container cable_car subway aircraft wheelchair scooter drone" speed="13.89" length="14.37" shape="390.82,417.24 376.47,416.44"/>
    </edge>
    <edge id=":255883450_1" function="internal">
        <lane id=":255883450_1_0" index="0" disallow="tram rail_urban rail rail_electric rail_fast ship container cable_car subway aircraft wheelchair scooter drone" speed="8.02" length="4.04" shape="390.82,417.24 387.02,416.46 386.89,416.37"/>
    </edge>
    <edge id=":255883450_2" function="internal">
        <lane id=":255883450_2_0" index="0" disallow="tram rail_urban rail rail_electric rail_fast ship container cable_car subway aircraft wheelchair scooter drone" speed="3.65" length="1.44" shape="390.82,417.24 389.67,416.37"/>
    </edge>
    <edge id=":255883450_9" function="internal">
        <lane id=":255883450_9_0" index="0" disallow="tram rail_urban rail rail_electric rail_fast ship container cable_car subway aircraft wheelchair scooter drone" speed="8.02" length="10.15" shape="386.89,416.37 384.37,414.66 382.87,411.82 382.52,407.95"/>
    </edge>
    <edge id=":255883450_10" function="internal">
        <lane id=":255883450_10_0" index="0" disallow="tram rail_urban rail rail_electric rail_fast ship container cable_car subway aircraft wheelchair scooter drone" speed="3.65" length="3.23" shape="389.67,416.37 389.32,415.54 389.76,414.77 391.01,414.04"/>
    </edge>
    <edge id=":255883450_3" function="internal">
        <lane id=":255883450_3_0" index="0" disallow="tram rail_urban rail rail_electric rail_fast ship container cable_car subway aircraft wheelchair scooter drone" speed="6.53" length="9.05" shape="385.72,408.12 385.94,410.59 386.90,412.40 388.59,413.55 391.01,414.04"/>
    </edge>
    <edge id=":255883450_4" function="internal">
        <lane id=":255883450_4_0" index="0" disallow="tram rail_urban rail rail_electric rail_fast ship container cable_car subway aircraft wheelchair scooter drone" speed="8.00" length="14.19" shape="385.72,408.12 384.97,411.93 383.18,414.59 380.35,416.09 376.47,416.44"/>
    </edge>
    <edge id=":255883450_5" function="internal">
        <lane id=":255883450_5_0" index="0" disallow="tram rail_urban rail rail_electric rail_fast ship container cable_car subway aircraft wheelchair scooter drone" speed="3.65" length="4.67" shape="385.72,408.12 384.86,409.27 384.04,409.63 383.26,409.19 382.52,407.95"/>
    </edge>
    <edge id=":255883450_6" function="internal">
        <lane id=":255883450_6_0" index="0" disallow="tram rail_urban rail rail_electric rail_fast ship container cable_car subway aircraft wheelchair scooter drone" speed="6.50" length="9.03" shape="376.64,413.24 379.11,413.02 380.91,412.07 382.05,410.37 382.52,407.95"/>
    </edge>
    <edge id=":255883450_7" function="internal">
        <lane id=":255883450_7_0" index="0" disallow="tram rail_urban rail rail_electric rail_fast ship container cable_car subway aircraft wheelchair scooter drone" speed="13.89" length="14.39" shape="376.64,413.24 391.01,414.04"/>
    </edge>
    <edge id=":255883450_8" function="internal">
        <lane id=":255883450_8_0" index="0" disallow="tram rail_urban rail rail_electric rail_fast ship container cable_car subway aircraft wheelchair scooter drone" speed="3.65" length="1.44" shape="376.64,413.24 377.80,414.10"/>
    </edge>
    <edge id=":255883450_11" function="internal">
        <lane id=":255883450_11_0" index="0" disallow="tram rail_urban rail rail_electric rail_fast ship container cable_car subway aircraft wheelchair scooter drone" speed="3.65" length="3.23" shape="377.80,414.10 378.15,414.92 377.71,415.70 376.47,416.44"/>
    </edge>
    <edge id=":255883451_0" function="internal">
        <lane id=":255883451_0_0" index="0" disallow="tram rail_urban rail rail_electric rail_fast ship container cable_car subway aircraft wheelchair scooter drone" speed="13.89" length="0.31" shape="469.04,421.80 468.74,421.78"/>
    </edge>
    <edge id=":255883451_1" function="internal">
        <lane id=":255883451_1_0" index="0" disallow="tram rail_urban rail rail_electric rail_fast ship container cable_car subway aircraft wheelchair scooter drone" speed="13.89" length="0.29" shape="468.92,418.58 469.22,418.60"/>
    </edge>
    <edge id=":255883455_0" function="internal">
        <lane id=":255883455_0_0" index="0" disallow="tram rail_urban rail rail_electric rail_fast ship container cable_car subway aircraft wheelchair scooter drone" speed="7.65" length="10.39" shape="492.57,316.31 490.34,315.34 488.03,315.30 485.63,316.20 483.15,318.03"/>
    </edge>
    <edge id=":255883455_1" function="internal">
        <lane id=":255883455_1_0" index="0" disallow="tram rail_urban rail rail_electric rail_fast ship container cable_car subway aircraft wheelchair scooter drone" speed="13.89" length="14.56" shape="492.57,316.31 480.47,308.22"/>
    </edge>
    <edge id=":255883455_2" function="internal">
        <lane id=":255883455_2_0" index="0" disallow="tram rail_urban rail rail_electric rail_fast ship container cable_car subway aircraft wheelchair scooter drone" speed="3.65" length="1.44" shape="492.57,316.31 492.01,314.98"/>
    </edge>
    <edge id=":255883455_9" function="internal">
        <lane id=":255883455_9_0" index="0" disallow="tram rail_urban rail rail_electric rail_fast ship container cable_car subway aircraft wheelchair scooter drone" speed="3.65" length="3.23" shape="492.01,314.98 492.11,314.09 492.89,313.64 494.33,313.63"/>
    </edge>
    <edge id=":255883455_3" function="internal">
        <lane id=":255883455_3_0" index="0" disallow="tram rail_urban rail rail_electric rail_fast ship container cable_car subway aircraft wheelchair scooter drone" speed="13.89" length="14.51" shape="482.27,305.57 494.33,313.63"/>
    </edge>
    <edge id=":255883455_4" function="internal">
        <lane id=":255883455_4_0" index="0" disallow="tram rail_urban rail rail_electric rail_fast ship container cable_car subway aircraft wheelchair scooter drone" speed="7.64" length="4.31" shape="482.27,305.57 485.45,308.47"/>
    </edge>
    <edge id=":255883455_5" function="internal">
        <lane id=":255883455_5_0" index="0" disallow="tram rail_urban rail rail_electric rail_fast ship container cable_car subway aircraft wheelchair scooter drone" speed="3.65" length="1.44" shape="482.27,305.57 482.81,306.90"/>
    </edge>
    <edge id=":255883455_10" function="internal">
        <lane id=":255883455_10_0" index="0" disallow="tram rail_urban rail rail_electric rail_fast ship container cable_car subway aircraft wheelchair scooter drone" speed="7.64" length="10.86" shape="485.45,308.47 486.66,311.52 485.89,314.70 483.15,318.03"/>
    </edge>
    <edge id=":255883455_11" function="internal">
        <lane id=":255883455_11_0" index="0" disallow="tram rail_urban rail rail_electric rail_fast ship container cable_car subway aircraft wheelchair scooter drone" speed="3.65" length="3.23" shape="482.81,306.90 482.69,307.79 481.91,308.23 480.47,308.22"/>
    </edge>
    <edge id=":255883455_6" function="internal">
        <lane id=":255883455_6_0" index="0" disallow="tram rail_urban rail rail_electric rail_fast ship container cable_car subway aircraft wheelchair scooter drone" speed="6.06" length="9.07" shape="481.00,315.66 482.64,313.68 483.09,311.77 482.37,309.95 480.47,308.22"/>
    </edge>
    <edge id=":255883455_7" function="internal">
        <lane id=":255883455_7_0" index="0" disallow="tram rail_urban rail rail_electric rail_fast ship container cable_car subway aircraft wheelchair scooter drone" speed="8.98" length="14.65" shape="481.00,315.66 484.41,313.19 487.77,312.03 491.07,312.17 494.33,313.63"/>
    </edge>
    <edge id=":255883455_8" function="internal">
        <lane id=":255883455_8_0" index="0" disallow="tram rail_urban rail rail_electric rail_fast ship container cable_car subway aircraft wheelchair scooter drone" speed="3.65" length="4.67" shape="481.00,315.66 482.42,315.45 483.26,315.77 483.50,316.63 483.15,318.03"/>
    </edge>
    <edge id=":255883465_0" function="internal">
        <lane id=":255883465_0_0" index="0" disallow="tram rail_urban rail rail_electric rail_fast ship container cable_car subway aircraft wheelchair scooter drone" speed="13.89" length="0.31" shape="457.71,341.21 457.47,341.42"/>
    </edge>
    <edge id=":255883465_1" function="internal">
        <lane id=":255883465_1_0" index="0" disallow="tram rail_urban rail rail_electric rail_fast ship container cable_car subway aircraft wheelchair scooter drone" speed="13.89" length="0.28" shape="455.35,339.03 455.55,338.85"/>
    </edge>
    <edge id=":256215980_0" function="internal">