<configuration>
  <input>
    <net-file value="odense.net.xml"/>
    <route-files value="odense.rou.xml"/>
  </input>
  <time>
    <begin value="0"/>
    <end value="1000"/>
  </time>
</configuration>