<?xml version="1.0" encoding="UTF-8"?>

<!-- generated on 2025-04-10 19:55:17 by Eclipse SUMO duarouter Version v1_22_0+1410-6cdd9657096
<duarouterConfiguration xmlns:xsi="http://www.w3.org/2001/XMLSchema-instance" xsi:noNamespaceSchemaLocation="http://sumo.dlr.de/xsd/duarouterConfiguration.xsd">

    <input>
        <net-file value="/home/dts/Desktop/sumo-project/odense.net.xml"/>
        <route-files value="/home/dts/Desktop/sumo-project/odense.trips.xml"/>
    </input>

    <output>
        <output-file value="/home/dts/Desktop/sumo-project/odense.rou.xml"/>
    </output>

    <report>
        <ignore-errors value="true"/>
    </report>

</duarouterConfiguration>
-->

<routes xmlns:xsi="http://www.w3.org/2001/XMLSchema-instance" xsi:noNamespaceSchemaLocation="http://sumo.dlr.de/xsd/routes_file.xsd">
    <vehicle id="0" depart="0.00" departLane="best" departSpeed="max">
        <route edges="-758344504#8 29193084 25539049#5 25539049#6 502422158#1 502422158#2 502198377#0 502198377#1 502198377#2 502198377#3 742674790 973122227 606468705#0 606468705#1 606468705#2 -1154848659#9 -1154848659#8 -1154848659#7 -1154848659#6 -1154848659#5"/>
    </vehicle>
    <vehicle id="1" depart="2.00" departLane="best" departSpeed="max">
        <route edges="502198380#9 -502198380#9 -502198380#8 -502198380#7 -502198380#6 -502198380#4 -502198380#3 -502198380#2 -502198380#1 502198392#0 502198392#1 502198392#2 973122231 509049552 606468707 502198367 294165100 742357030#0 742357030#1 742357030#2 414187429#0 414187429#1 937358477 937358476#0 937358476#1 742357027 414187430#0 414187430#1 414187430#2 414187430#3 380657315#0 380657315#1"/>
    </vehicle>
    <vehicle id="2" depart="3.00" departLane="best" departSpeed="max">
        <route edges="758344504#4 758344504#5 758344504#6 29193086#1 29193086#2 29193086#3 29193086#4 29193086#5 29193086#6"/>
    </vehicle>
    <vehicle id="3" depart="4.00" departLane="best" departSpeed="max">
        <route edges="-502422158#1 502422158#1 502422158#2 502198377#0 502198377#1 502198377#2 502198377#3 742674790 973122227 606468705#0 606468705#1 606468705#2 -1154848659#9 -1154848659#8 -1154848659#7 -1154848659#6 -1154848659#5 -1154848659#4 -1154848659#3 -1154848659#2 -1154848659#1 -1154848659#0 -1173022534 -22756092#3 -22756092#2 -22756092#1 22756092#1"/>
    </vehicle>
    <vehicle id="4" depart="4.00" departLane="best" departSpeed="max">
        <route edges="537256431 973122230 537256428#0 537256428#1 1376181845 -1126957838 -495557846 495557846 1126957838 502198370#0 502198370#1 502198370#2 502198370#3 537256421#0 537256421#1 -502422158#2 -502422158#1 -25539049#6 -25539049#5 -25539049#4 -25539049#3 -25539049#2"/>
    </vehicle>
    <vehicle id="5" depart="5.00" departLane="best" departSpeed="max">
        <route edges="-1154848659#6 -1154848659#5 -1154848659#4 -1154848659#3 -1154848659#2 -1154848659#1 -1154848659#0 -1173022534 -262037337 1154848659#0 1154848659#1 1154848659#2 1154848659#3 1154848659#4 1154848659#5 1154848659#6 1154848659#7 1154848659#8 1154848659#9 502198392#0 502198392#1 502198392#2 973122231 509049552 606468707 502198367 294165100 742357030#0 742357030#1 742357030#2 414187429#0 414187429#1 834317116#0 834317116#1 742357032 -757647504"/>
    </vehicle>
    <vehicle id="6" depart="5.00" departLane="best" departSpeed="max">
        <route edges="502198382#1 502198382#3 973122229 973122233 537256421#0 537256421#1 -502422158#2 502422158#2 502198377#0 502198377#1 502198377#2 502198377#3 606468707 502198367 294165100 330203630#0 330203630#1 330203630#2 330203630#3 330203630#4 1122319010 742357031#0 742357031#1 414187437#0 414187437#1 -502198367 502198374#0 502198374#1 502198374#2 502198374#3"/>
    </vehicle>
    <vehicle id="7" depart="6.00" departLane="best" departSpeed="max">
        <route edges="937358476#0 937358476#1 1122319010 742357031#0 742357031#1 414187437#0 414187437#1 -502198367 502198374#0 502198388#0 502198388#1 973122228 509049549 537256421#0 537256421#1 -502422158#2 -502422158#1 -25539049#6 -25539049#5 -25539049#4 -25539049#3 -25539049#2 -25539049#1 758344504#0 758344504#1 29193088#0 29193088#1 -29193088#1"/>
    </vehicle>
    <vehicle id="8" depart="7.00" departLane="best" departSpeed="max">
        <route edges="24753221#3 24753221#4 -24753221#4"/>
    </vehicle>
    <vehicle id="9" depart="7.00" departLane="best" departSpeed="max">
        <route edges="758344504#0 758344504#1 29193088#0 29193088#1 -29193088#1"/>
    </vehicle>
    <vehicle id="10" depart="9.00" departLane="best" departSpeed="max">
        <route edges="132796196 -132796198#0 25539049#1 25539049#2 25539049#3 25539049#4 25539049#5 25539049#6 502422158#1 502422158#2 502198377#0 502198377#1 502198377#2 502198377#3 606468707 502198367 294165100 330203630#0 330203630#1 330203630#2 330203630#3 330203630#4 1122319010 742357031#0 742357031#1 414187437#0 414187437#1 -502198367 502198374#0 502198374#1 502198374#2 502198374#3"/>
    </vehicle>
    <vehicle id="11" depart="10.00" departLane="best" departSpeed="max">
        <route edges="-502198380#7 -502198380#6 502198380#6"/>
    </vehicle>
    <vehicle id="12" depart="11.00" departLane="best" departSpeed="max">
        <route edges="414187433#1 414187433#2 414187433#3 414187433#4 834317116#0 834317116#1 742357032"/>
    </vehicle>
    <vehicle id="13" depart="11.00" departLane="best" departSpeed="max">
        <route edges="-25539049#6 -25539049#5 25539049#5 25539049#6 502422158#1 502422158#2 502198377#0 502198377#1 502198377#2 502198377#3 606468707 502198367 294165100 742357030#0 742357030#1 742357030#2 414187429#0 414187429#1 834317116#0 834317116#1 742357032 -757647504 -9790003 9790003"/>
    </vehicle>
    <vehicle id="14" depart="12.00" departLane="best" departSpeed="max">
        <route edges="502198392#2 973122231 509049546 606468705#0 606468705#1 606468705#2 502198382#1 502198382#3 537256428#0 537256428#1 1376181845 -1126957838 -495557846 495557846 1126957838 502198370#0 502198370#1 502198370#2 502198370#3 537256424"/>
    </vehicle>
    <vehicle id="15" depart="15.00" departLane="best" departSpeed="max">
        <route edges="-1154848659#6 -1154848659#5 -1154848659#4 -1154848659#3 -1154848659#2 -1154848659#1 -1154848659#0 -1173022534 -262037337 1154848659#0 1154848659#1 1154848659#2 1154848659#3 1154848659#4 1154848659#5 1154848659#6 1154848659#7 1154848659#8 1154848659#9 502198392#0 502198392#1 502198392#2 973122231 509049552 606468707 502198367 294165100 330203630#0 330203630#1 330203630#2 330203630#3"/>
    </vehicle>
    <vehicle id="16" depart="19.00" departLane="best" departSpeed="max">
        <route edges="758344504#6 29193086#1 29193086#2 29193086#3 29193086#4 29193086#5 25539049#4 25539049#5 25539049#6 502422158#1 502422158#2 502198377#0 502198377#1 502198377#2 502198377#3 606468707 502198367 294165100 330203630#0 330203630#1 330203630#2 330203630#3 330203630#4 1122319010 742357031#0 742357031#1 414187437#0 414187437#1"/>
    </vehicle>
    <vehicle id="17" depart="29.00" departLane="best" departSpeed="max">
        <route edges="-25539049#3 -25539049#2 -25539049#1 25539049#1 25539049#2 25539049#3 25539049#4 -25539049#4"/>
    </vehicle>
    <vehicle id="18" depart="30.00" departLane="best" departSpeed="max">
        <route edges="8798716 757647504 742357028#0 742357028#1 8798717 937358476#0 937358476#1 1122319010 742357031#0 742357031#1 414187437#0 414187437#1 -502198367 502198374#0 502198388#0 502198388#1 973122228 509049549 537256421#0 537256421#1 -502422158#2 -502422158#1 -502422158#0 502422158#0"/>
    </vehicle>
    <vehicle id="19" depart="30.00" departLane="best" departSpeed="max">
        <route edges="-29193094#1 -29193094#0 -29193088#4 -29193088#3 -29193088#2 -29193088#1 -29193088#0 29193087 29193086#4 29193086#5 25539049#4 25539049#5 25539049#6 502422158#1 502422158#2 502198377#0 502198377#1 502198377#2 502198377#3 742674790 973122227 606468705#0 606468705#1 606468705#2 502198380#1 502198380#2 502198380#3 502198380#4 -23649661#3"/>
    </vehicle>
    <vehicle id="20" depart="30.00" departLane="best" departSpeed="max">
        <route edges="502198377#1 502198377#2 502198377#3 742674790 973122227 606468705#0 606468705#1 606468705#2 502198382#1 502198382#3 973122229"/>
    </vehicle>
    <vehicle id="21" depart="30.00" departLane="best" departSpeed="max">
        <route edges="-502198380#3 -502198380#2 -502198380#1 502198392#0 502198392#1 502198392#2 973122231 509049552 606468707 502198367 294165100 742357030#0 742357030#1 742357030#2 414187429#0 414187429#1 834317116#0 834317116#1 742357032 -757647504 757647504 742357028#0 742357028#1 8798717"/>
    </vehicle>
    <vehicle id="22" depart="30.00" departLane="best" departSpeed="max">
        <route edges="23649661#3 -502198380#4 -502198380#3 -502198380#2 -502198380#1 502198392#0 502198392#1 502198392#2 973122231 509049546"/>
    </vehicle>
    <vehicle id="23" depart="31.00" departLane="best" departSpeed="max">
        <route edges="758344504#6 -758344504#6 -758344504#5 -758344504#4 -758344504#3 -758344504#1 -758344504#0 -24753221#5 -24753221#4 -24753221#3 -24753221#2 -24753221#1 -24753221#0 24753221#0 24753221#1 24753221#2 24753221#3 24753221#4"/>
    </vehicle>
    <vehicle id="24" depart="39.00" departLane="best" departSpeed="max">
        <route edges="24753221#3 24753221#4 24753221#5 25539049#1 25539049#2 25539049#3 25539049#4 25539049#5 25539049#6 502422158#1 502422158#2 502198377#0 502198377#1 502198377#2 502198377#3 606468707 502198367 294165100 330203630#0 330203630#1 330203630#2 330203630#3 330203630#4 1122319010 742357031#0"/>
    </vehicle>
    <vehicle id="25" depart="40.00" departLane="best" departSpeed="max">
        <route edges="-29193090 -29193094#1 -29193094#0"/>
    </vehicle>
    <vehicle id="26" depart="47.00" departLane="best" departSpeed="max">
        <route edges="502198380#9 -502198380#9 -502198380#8 502198380#8"/>
    </vehicle>
    <vehicle id="27" depart="48.00" departLane="best" departSpeed="max">
        <route edges="-22756090#3 -22756090#2 -22756090#1 -22756090#0 -1178550068 -502198380#7 -502198380#6 -502198380#4 -502198380#3 -502198380#2 -502198380#1 502198392#0 502198392#1 502198392#2 973122231 509049552 606468707 502198367 294165100 742357030#0 742357030#1 742357030#2 414187429#0 414187429#1 937358477 834317115 742357029 294165097#0 502184468#0 502184468#1"/>
    </vehicle>
    <vehicle id="28" depart="55.00" departLane="best" departSpeed="max">
        <route edges="-22756090#1 -22756090#0 -1178550068 -502198380#7 -502198380#6 -502198380#4 -502198380#3 -502198380#2 -502198380#1 502198382#1 502198382#3 973122229 973122233 537256421#0 537256421#1 -502422158#2 -502422158#1 -25539049#6 -25539049#5 -25539049#4 -29193086#5 -29193086#4 29193086#4 29193086#5"/>
    </vehicle>
    <vehicle id="29" depart="59.00" departLane="best" departSpeed="max">
        <route edges="-757647504 757647504 742357028#0 742357028#1 8798717 937358476#0 502184468#3 834317116#0"/>
    </vehicle>
    <vehicle id="30" depart="59.00" departLane="best" departSpeed="max">
        <route edges="758344504#6 29193086#1 29193086#2 29193086#3 29193086#4 29193086#5 -25539049#3"/>
    </vehicle>
    <vehicle id="31" depart="62.00" departLane="best" departSpeed="max">
        <route edges="973122235 509049549 537256421#0 537256421#1 -502422158#2 502422158#2 502198377#0 502198377#1 502198377#2 502198377#3 742674790 973122227 606468705#0 606468705#1 606468705#2 -1154848659#9 -1154848659#8 -1154848659#7 -1154848659#6 -1154848659#5 -1154848659#4"/>
    </vehicle>
    <vehicle id="32" depart="69.00" departLane="best" departSpeed="max">
        <route edges="-495557846 495557846 1126957838 502198370#0 502198385#0 502198385#1 502198385#2 973122232 509049546 606468705#0 606468705#1 606468705#2 -1154848659#9 -1154848659#8 -1154848659#7 -1154848659#6 -1154848659#5 -1154848659#4 -1154848659#3 -1154848659#2 -1154848659#1 -1154848659#0 -1173022534 -262037337 1154848659#0 1154848659#1"/>
    </vehicle>
    <vehicle id="33" depart="71.00" departLane="best" departSpeed="max">
        <route edges="330203628#1 330203628#2 330203628#3 330203628#4 414187437#0 414187437#1 -502198367 502198374#0 502198388#0 502198388#1 973122228 509049549 537256421#0 537256421#1 -502422158#2 -502422158#1 -25539049#6 -25539049#5 -25539049#4 -25539049#3 -25539049#2 -25539049#1 -24753221#5 -24753221#4 -24753221#3 -24753221#2 -24753221#1 -24753221#0"/>
    </vehicle>
    <vehicle id="34" depart="76.00" departLane="best" departSpeed="max">
        <route edges="-22756090#2 -22756090#1 -22756090#0 -1178550068 -502198380#7 -502198380#6 -502198380#4 -502198380#3 -502198380#2 -502198380#1 502198382#1 502198382#3 973122229 973122233 537256421#0 537256421#1 -502422158#2 -502422158#1 -25539049#6 -25539049#5 -25539049#4 -25539049#3 -25539049#2 -25539049#1 758344504#0 758344504#1 29193088#0 29193088#1 29193088#2 29193088#3"/>
    </vehicle>
    <vehicle id="35" depart="77.00" departLane="best" departSpeed="max">
        <route edges="-502198380#7 -502198380#6 -502198380#4 -502198380#3 -502198380#2 -502198380#1 -1154848659#9 -1154848659#8 -1154848659#7 -1154848659#6 -1154848659#5 -1154848659#4 -1154848659#3 -1154848659#2 -1154848659#1 -1154848659#0 -1173022534 -262037337 1154848659#0 1154848659#1"/>
    </vehicle>
    <vehicle id="36" depart="78.00" departLane="best" departSpeed="max">
        <route edges="-25539049#3 -25539049#2 -25539049#1 25539049#1 25539049#2 25539049#3 25539049#4 25539049#5 25539049#6 502422158#1 502422158#2 502198377#0 502198377#1 502198377#2 502198377#3 606468707 502198367 294165100 742357030#0 742357030#1 742357030#2 414187429#0 414187429#1 834317116#0 834317116#1 742357032 -757647504 757647504 742357028#0"/>
    </vehicle>
    <vehicle id="37" depart="83.00" departLane="best" departSpeed="max">
        <route edges="-495557846 495557846 1126957838 502198370#0 502198370#1 502198370#2 502198370#3 537256421#0 537256421#1 -502422158#2 -502422158#1 -25539049#6 -25539049#5 -25539049#4 -25539049#3 -25539049#2 -25539049#1 758344504#0 758344504#1 29193088#0 29193088#1 29193088#2"/>
    </vehicle>
    <vehicle id="38" depart="83.00" departLane="best" departSpeed="max">
        <route edges="1178550068 22756090#0 22756090#1 22756090#2 22756090#3 22756090#4 22756092#1 22756092#2 22756092#3 1173022534 1154848659#0 1154848659#1 1154848659#2 1154848659#3 1154848659#4 1154848659#5 1154848659#6 1154848659#7 1154848659#8 1154848659#9 -1154848659#9 -1154848659#8 -1154848659#7"/>
    </vehicle>
    <vehicle id="39" depart="83.00" departLane="best" departSpeed="max">
        <route edges="502198388#0 502198388#1 973122228 509049549 537256421#0 537256421#1 -502422158#2 -502422158#1 -25539049#6 -25539049#5 -25539049#4 -25539049#3 -25539049#2 -25539049#1 758344504#0 758344504#1 29193088#0 29193088#1 -29193094#1"/>
    </vehicle>
    <vehicle id="40" depart="85.00" departLane="best" departSpeed="max">
        <route edges="-1154848659#8 -1154848659#7 -1154848659#6 -1154848659#5 -1154848659#4 -1154848659#3 -1154848659#2 -1154848659#1 -1154848659#0 -1173022534 -262037337 1154848659#0 1154848659#1 1154848659#2 1154848659#3 1154848659#4 1154848659#5 1154848659#6 1154848659#7 1154848659#8 1154848659#9 502198382#1 502198382#3 973122229 973122233 537256421#0 537256421#1 -502422158#2 -502422158#1 -25539049#6 -25539049#5 -25539049#4 -25539049#3 -25539049#2 -25539049#1 132796198#0 -132796198#0"/>
    </vehicle>
    <vehicle id="41" depart="89.00" departLane="best" departSpeed="max">
        <route edges="502198388#1 973122228 509049549 537256421#0 537256421#1 -502422158#2 -502422158#1 -25539049#6 -25539049#5 25539049#5 25539049#6"/>
    </vehicle>
    <vehicle id="42" depart="100.00" departLane="best" departSpeed="max">
        <route edges="-29193086#5 -29193086#4 -29193086#3 -29193086#2 -29193086#1 -758344504#6 -758344504#5 -758344504#4 -758344504#3 758344504#3 758344504#4 758344504#5 758344504#6"/>
    </vehicle>
    <vehicle id="43" depart="104.00" departLane="best" departSpeed="max">
        <route edges="23649661#2 23649661#3 -502198380#4 -502198380#3 -502198380#2 -502198380#1 502198382#1 502198382#3 973122229 973122233 537256421#0 537256421#1 -502422158#2 502422158#2 502198377#0 502198390#0"/>
    </vehicle>
    <vehicle id="44" depart="107.00" departLane="best" departSpeed="max">
        <route edges="-22756090#2 -22756090#1 -22756090#0 -1178550068 -502198380#7 -502198380#6 -502198380#4 -502198380#3 -502198380#2 -502198380#1 502198392#0 502198392#1 502198392#2 973122231 509049552 606468707 502198367 294165100 330203630#0 330203630#1 330203630#2 330203630#3 330203630#4 1122319010 742357031#0 742357031#1 414187437#0 414187437#1 -502198367 502198374#0 502198374#1 502198374#2 502198374#3 537256431"/>
    </vehicle>
    <vehicle id="45" depart="107.00" departLane="best" departSpeed="max">
        <route edges="-29193086#1 -758344504#6 -758344504#5 -758344504#4 -758344504#3 -758344504#1 -758344504#0 -24753221#5 -24753221#4"/>
    </vehicle>
    <vehicle id="46" depart="109.00" departLane="best" departSpeed="max">
        <route edges="24753221#5 25539049#1 25539049#2 25539049#3 25539049#4 25539049#5 25539049#6 502422158#1 502422158#2"/>
    </vehicle>
    <vehicle id="47" depart="110.00" departLane="best" departSpeed="max">
        <route edges="1154848659#2 1154848659#3 1154848659#4 1154848659#5 1154848659#6 1154848659#7 1154848659#8 1154848659#9 502198382#1 502198382#3 973122229 973122233"/>
    </vehicle>
    <vehicle id="48" depart="114.00" departLane="best" departSpeed="max">
        <route edges="937358476#0 502184468#3 834317116#0 834317116#1 742357032 -757647504 -8798716"/>
    </vehicle>
    <vehicle id="49" depart="115.00" departLane="best" departSpeed="max">
        <route edges="-29193086#6 25539049#4 25539049#5 25539049#6 502422158#1 502422158#2 502198377#0 502198377#1 502198377#2 502198377#3 742674790 973122227 606468705#0 606468705#1 606468705#2 502198380#1 502198380#2 502198380#3 502198380#4 -23649661#3 -23649661#2 -23649661#1 -23649661#0"/>
    </vehicle>
    <vehicle id="50" depart="115.00" departLane="best" departSpeed="max">
        <route edges="502184468#1 502184468#2 937358476#1 1122319010 742357031#0 742357031#1 414187437#0 414187437#1 -502198367 502198374#0 502198388#0 502198388#1 973122228 509049549 537256421#0 537256421#1 -502422158#2 -502422158#1 -25539049#6 -25539049#5 -25539049#4 -25539049#3 -25539049#2 -25539049#1 758344504#0 758344504#1 758344504#3 758344504#4 758344504#5 758344504#6"/>
    </vehicle>
    <vehicle id="51" depart="117.00" departLane="best" departSpeed="max">
        <route edges="-502198380#2 -502198380#1 502198392#0 502198392#1 502198392#2 973122231 509049552 606468707 502198367 294165100 742357030#0 742357030#1 742357030#2 414187429#0 414187429#1 937358477 937358476#0 937358476#1 742357027 414187430#0 414187430#1 414187430#2 414187430#3 380657315#0 380657315#1 380657315#2 -380657315#2"/>
    </vehicle>
    <vehicle id="52" depart="117.00" departLane="best" departSpeed="max">
        <route edges="330203630#3 330203630#4 1122319010 742357031#0 742357031#1 414187437#0 414187437#1 -502198367 502198374#0 502198374#1 502198374#2 502198374#3 606468705#0 606468705#1 606468705#2 502198380#1 502198380#2 502198380#3 502198380#4 -502198380#4 -502198380#3 -502198380#2 -502198380#1"/>
    </vehicle>
    <vehicle id="53" depart="120.00" departLane="best" departSpeed="max">
        <route edges="330203630#1 330203630#2 330203630#3 330203630#4 1122319010 742357031#0 742357031#1 414187437#0 414187437#1 -502198367 502198374#0 502198388#0 502198388#1 973122228 509049549 537256421#0 537256421#1 -502422158#2 -502422158#1 -25539049#6 -25539049#5 -25539049#4 -25539049#3 -25539049#2 -25539049#1 758344504#0 758344504#1 29193088#0 29193088#1 29193088#2 29193088#3 29193088#4 29193088#5 -29193088#5"/>
    </vehicle>
    <vehicle id="54" depart="122.00" departLane="best" departSpeed="max">
        <route edges="1126957838 502198370#0 502198385#0 502198385#1 502198385#2 973122232 509049546 606468705#0 606468705#1 606468705#2 502198380#1 502198380#2 502198380#3 502198380#4 502198380#6 502198380#7 1178550068 22756090#0"/>
    </vehicle>
    <vehicle id="55" depart="122.00" departLane="best" departSpeed="max">
        <route edges="414187433#0 414187433#1 414187433#2 742357031#0 742357031#1 414187437#0 414187437#1 -502198367 502198374#0 502198388#0 502198388#1 973122228 509049549 537256421#0 537256421#1 -502422158#2 -502422158#1 -25539049#6 -25539049#5 -29193084 29193084"/>
    </vehicle>
    <vehicle id="56" depart="124.00" departLane="best" departSpeed="max">
        <route edges="29193086#7 -29193086#7 -29193086#6 25539049#4 25539049#5 25539049#6 502422158#1 502422158#2 502198377#0 502198377#1 502198377#2 502198377#3 742674790 973122227 606468705#0 606468705#1 606468705#2 -1154848659#9 -1154848659#8 -1154848659#7 -1154848659#6 -1154848659#5 -1154848659#4 -1154848659#3 -1154848659#2 -1154848659#1 -1154848659#0 -1173022534 -22756092#3 -22756092#2"/>
    </vehicle>
    <vehicle id="57" depart="124.00" departLane="best" departSpeed="max">
        <route edges="22756090#3 22756090#4 22756092#1 22756092#2 22756092#3 1173022534 1154848659#0 1154848659#1 1154848659#2 1154848659#3 1154848659#4 1154848659#5 1154848659#6 1154848659#7 1154848659#8 1154848659#9 502198382#1 502198382#3 973122229 973122233 537256421#0 537256421#1 -502422158#2 -502422158#1 -25539049#6 -25539049#5 -25539049#4 -25539049#3 -25539049#2 -25539049#1 -24753221#5 -24753221#4 -24753221#3 -24753221#2 -24753221#1 -24753221#0 24753221#0 24753221#1"/>
    </vehicle>
    <vehicle id="58" depart="125.00" departLane="best" departSpeed="max">
        <route edges="-495557846 495557846 1126957838 502198370#0 502198370#1 502198370#2 502198370#3 537256424 973122234 606468707 502198367 294165100 742357030#0 742357030#1 742357030#2 414187429#0 414187429#1 834317116#0 834317116#1 742357032 -757647504 -9790003 9790003"/>
    </vehicle>
    <vehicle id="59" depart="125.00" departLane="best" departSpeed="max">
        <route edges="-22756092#1 22756092#1 22756092#2 22756092#3 1173022534 1154848659#0 1154848659#1 1154848659#2 1154848659#3 1154848659#4 1154848659#5 1154848659#6 1154848659#7 1154848659#8 1154848659#9 502198382#1 502198382#3 973122229 973122233 537256421#0 537256421#1 -502422158#2 -502422158#1 -25539049#6 -25539049#5 -25539049#4 -25539049#3 -25539049#2 -25539049#1 -24753221#5 -24753221#4"/>
    </vehicle>
    <vehicle id="60" depart="125.00" departLane="best" departSpeed="max">
        <route edges="1154848659#0 1154848659#1 1154848659#2 1154848659#3 1154848659#4 1154848659#5 1154848659#6 1154848659#7 1154848659#8 1154848659#9 502198382#1 502198382#3 973122229 973122233 537256421#0 537256421#1 -502422158#2 -502422158#1 -25539049#6 -25539049#5 -25539049#4 -29193086#5 -29193086#4 -29193086#3 -29193086#2 -29193086#1 758344504#7"/>
    </vehicle>
    <vehicle id="61" depart="127.00" departLane="best" departSpeed="max">
        <route edges="25539049#2 25539049#3 25539049#4 25539049#5 25539049#6 502422158#1 502422158#2 502198377#0 502198377#1 502198377#2 502198377#3 742674790 973122227 606468705#0 606468705#1 606468705#2 -1154848659#9 -1154848659#8 -1154848659#7 -1154848659#6 -1154848659#5 -1154848659#4 -1154848659#3 -1154848659#2 -1154848659#1 -1154848659#0 -1173022534 -262037337 1154848659#0 1154848659#1 1154848659#2 1154848659#3 1154848659#4 1154848659#5 1154848659#6 1154848659#7 1154848659#8 1154848659#9"/>
    </vehicle>
    <vehicle id="62" depart="131.00" departLane="best" departSpeed="max">
        <route edges="23622084#2 -23622084#2 -23622084#1 -23622084#0"/>
    </vehicle>
    <vehicle id="63" depart="132.00" departLane="best" departSpeed="max">
        <route edges="1154848659#5 1154848659#6 1154848659#7 1154848659#8 1154848659#9 502198382#1 502198382#3 973122229 973122233 537256421#0 537256421#1 -502422158#2 -502422158#1 -25539049#6 -25539049#5 -25539049#4 -25539049#3 -25539049#2 -25539049#1 -24753221#5 -24753221#4 -24753221#3 -24753221#2 -24753221#1 -24753221#0 24753221#0 24753221#1 24753221#2"/>
    </vehicle>
    <vehicle id="64" depart="134.00" departLane="best" departSpeed="max">
        <route edges="-24753221#5 24753221#5 25539049#1 25539049#2 25539049#3 25539049#4 25539049#5 25539049#6 502422158#1 502422158#2 502198377#0 502198377#1 502198377#2 502198377#3 606468707 502198367 294165100 330203630#0 330203630#1 330203630#2 330203630#3 330203630#4 1122319010 742357031#0 742357031#1 414187437#0 414187437#1 -502198367"/>
    </vehicle>
    <vehicle id="65" depart="134.00" departLane="best" departSpeed="max">
        <route edges="22756090#5 -22756090#5 22756092#1 22756092#2 22756092#3 1173022534 1154848659#0 1154848659#1 1154848659#2 1154848659#3 1154848659#4 1154848659#5 1154848659#6 1154848659#7 1154848659#8 1154848659#9 502198382#1 502198382#3 973122229 973122233 537256421#0 537256421#1 -502422158#2 -502422158#1 -25539049#6 -25539049#5 -25539049#4 -25539049#3 -25539049#2 -25539049#1 758344504#0 758344504#1 29193088#0 29193088#1 29193088#2 29193088#3 29193088#4"/>
    </vehicle>
    <vehicle id="66" depart="139.00" departLane="best" departSpeed="max">
        <route edges="29193086#6 29193086#7 -29193086#7"/>
    </vehicle>
    <vehicle id="67" depart="140.00" departLane="best" departSpeed="max">
        <route edges="502198388#1 973122228 509049549 537256421#0 537256421#1 -502422158#2 -502422158#1 -25539049#6 -25539049#5 -25539049#4 -29193086#5 -29193086#4 -29193086#3 -29193086#2 -29193086#1"/>
    </vehicle>
    <vehicle id="68" depart="140.00" departLane="best" departSpeed="max">
        <route edges="-1154848659#0 -1173022534 -262037337 1154848659#0 1154848659#1 1154848659#2 1154848659#3 1154848659#4 1154848659#5 1154848659#6 1154848659#7 1154848659#8 1154848659#9 502198382#1 502198382#3 973122229 973122233 537256421#0 537256421#1 -502422158#2 -502422158#1 -25539049#6 -25539049#5 -25539049#4 -29193086#5 -29193086#4 -29193086#3 -29193086#2 -29193086#1 758344504#7"/>
    </vehicle>
    <vehicle id="69" depart="143.00" departLane="best" departSpeed="max">
        <route edges="757647504 742357028#0 742357028#1 8798717 937358476#0 937358476#1 742357027 414187430#0 414187430#1 -66289652"/>
    </vehicle>
    <vehicle id="70" depart="147.00" departLane="best" departSpeed="max">
        <route edges="-29193086#0 29193086#0 29193086#1 29193086#2 29193086#3 29193086#4 29193086#5 25539049#4 25539049#5 25539049#6 502422158#1 502422158#2 502198377#0 502198377#1 502198377#2 502198377#3 742674790 973122227 606468705#0 606468705#1 606468705#2 -1154848659#9 -1154848659#8 -1154848659#7 -1154848659#6 -1154848659#5 -1154848659#4 -1154848659#3 -1154848659#2 -1154848659#1 -1154848659#0 262037337"/>
    </vehicle>
    <vehicle id="71" depart="149.00" departLane="best" departSpeed="max">
        <route edges="-29193088#3 -29193088#2 -29193088#1 29193089 -29193089"/>
    </vehicle>
    <vehicle id="72" depart="159.00" departLane="best" departSpeed="max">
        <route edges="29193085 -29193085 -502422158#1 -25539049#6 -25539049#5 -25539049#4 -25539049#3 -25539049#2 -25539049#1 758344504#0 758344504#1 29193088#0 29193088#1 29193090"/>
    </vehicle>
    <vehicle id="73" depart="159.00" departLane="best" departSpeed="max">
        <route edges="414187433#0 414187433#1 414187433#2 742357031#0 742357031#1 414187437#0 414187437#1 -502198367 502198374#0 502198388#0 502198388#1 973122228 509049549 537256421#0 537256421#1 -502422158#2 -502422158#1 -25539049#6 -25539049#5 -25539049#4 -25539049#3 -25539049#2 -25539049#1 758344504#0 758344504#1 29193088#0 29193088#1 -29193094#1"/>
    </vehicle>
    <vehicle id="74" depart="162.00" departLane="best" departSpeed="max">
        <route edges="834317116#0 834317116#1 742357032 -757647504 757647504 742357028#0 742357028#1 8798717 937358476#0 937358476#1 1122319010 742357031#0 742357031#1 414187437#0 414187437#1 -502198367 502198374#0 502198388#0 502198388#1 973122228 509049549 537256421#0 537256421#1 -502422158#2 -502422158#1 -25539049#6 -25539049#5 -25539049#4 25539049#4"/>
    </vehicle>
    <vehicle id="75" depart="163.00" departLane="best" departSpeed="max">
        <route edges="-24753221#5 -24753221#4 -24753221#3 -24753221#2 -24753221#1 -24753221#0 24753221#0"/>
    </vehicle>
    <vehicle id="76" depart="164.00" departLane="best" departSpeed="max">
        <route edges="758344504#4 758344504#5 758344504#6 -758344504#6 -758344504#5 -758344504#4 -758344504#3 29193088#0 29193089 -29193089"/>
    </vehicle>
    <vehicle id="77" depart="168.00" departLane="best" departSpeed="max">
        <route edges="502198380#1 502198380#2 502198380#3 502198380#4 -502198380#4 -502198380#3 -502198380#2 -502198380#1 502198382#1 502198382#3 973122229 973122233 537256421#0 537256421#1 -502422158#2 502422158#2 502198377#0 502198390#0 502198390#1 502198390#2 973122235"/>
    </vehicle>
    <vehicle id="78" depart="169.00" departLane="best" departSpeed="max">
        <route edges="1122319010 742357031#0 742357031#1 414187437#0 414187437#1 -502198367 502198374#0 502198388#0 502198388#1 973122228 509049549 537256421#0 537256421#1 -502422158#2 -502422158#1 -25539049#6 -25539049#5 25539049#5"/>
    </vehicle>
    <vehicle id="79" depart="170.00" departLane="best" departSpeed="max">
        <route edges="758344504#8 -758344504#8 29193084 25539049#5 25539049#6 502422158#1 502422158#2 502198377#0 502198377#1 502198377#2 502198377#3 742674790 973122227 606468705#0 606468705#1 606468705#2 502198382#1"/>
    </vehicle>
    <vehicle id="80" depart="173.00" departLane="best" departSpeed="max">
        <route edges="758344504#0 758344504#1 -758344504#1 -758344504#0 -24753221#5 -24753221#4 -24753221#3 -24753221#2 502668521 -502668521"/>
    </vehicle>
    <vehicle id="81" depart="176.00" departLane="best" departSpeed="max">
        <route edges="-502198380#6 502198380#6 502198380#7 1178550068 22756090#0 22756090#1 22756090#2 22756090#3 22756090#4 22756092#1 22756092#2"/>
    </vehicle>
    <vehicle id="82" depart="176.00" departLane="best" departSpeed="max">